* PTS16 SPICE MODEL
.MODEL NMOS NMOS
+ LEVEL    = 8
+ VERSION  = 3.3.0
+ PARAMCHK = 1
