* PTS16 SPICE MODEL
.MODEL NMOS NMOS
+ LEVEL    = 8
+ VERSION  = 3.3.0
+ PARAMCHK = 1
+ A0      = 1.03605     
+ A1      = -0.0203167  
+ A2      = 0.435325    
+ ACDE    = 1           
+ AF      = 1           
+ AGS     = 0.14164     
+ ALPHA0  = 0           
+ ALPHA1  = 0           
+ AT      = 33000       
+ B0      = 1.14022E-07 
+ B1      = 1.82135E-22 
+ BETA0   = 30          
+ BINUNIT = 2           
+ CDSC    = 0.00024     
+ CDSCB   = 1E-10       
+ CDSCD   = 0.000209642 
+ CGDL    = 0           
+ CGSL    = 0           
+ CIT     = 0           
+ CJ      = 0.000579    
+ CJSW    = 0           
+ CJSWG   = 0           
+ CKAPPA  = 0.6         
+ CLC     = 1E-07       
+ CLE     = 0.6         
+ DELTA   = 0.0289055   
+ DLC     = 0           
+ DROUT   = 0.56        
+ DSUB    = 1.24204     
+ DVT0    = 1.36743     
+ DVT0W   = 0           
+ DVT1    = 0.363008    
+ DVT1W   = 530000      
+ DVT2    = -0.211578   
+ DVT2W   = -0.032      
+ DWB     = 1.45652E-08 
+ DWC     = 0           
+ DWG     = -1.5006E-08 
+ EF      = 0           
+ ELM     = 5           
+ ETA0    = 0.506511    
+ ETAB    = -1.43367E-05
+ IJTH    = 0.1         
+ JS      = 0           
+ JSW     = 0           
+ K1      = 1.0132      
+ K2      = -0.0288973  
+ K3      = 10.3919     
+ K3B     = -1.61634    
+ KETA    = -0.00565838 
+ KF      = 1           
+ KT1     = 0           
+ KT1L    = 0           
+ KT2     = 0.022       
+ LA0     = 0           
+ LA1     = 0           
+ LA2     = 0           
+ LACDE   = 0           
+ LAGS    = 0           
+ LALPHA0 = 0           
+ LALPHA1 = 0           
+ LAT     = 0           
+ LBETA0  = 0           
+ LCDSC   = 0           
+ LCDSCB  = 0           
+ LCDSCD  = 0           
+ LCF     = 0           
+ LCGDL   = 0           
+ LCGSL   = 0           
+ LCIT    = 0           
+ LCKAPPA = 0           
+ LCLC    = 0           
+ LCLE    = 0           
+ LDELTA  = 0           
+ LDROUT  = 0           
+ LDSUB   = 0           
+ LDVT0   = 0           
+ LDVT1   = 0           
+ LETA0   = 0           
+ LETAB   = 0           
+ LINT    = 3.09787E-08 
+ LK1     = 0           
+ LK2     = 0           
+ LK3     = 0           
+ LK3B    = 0           
+ LKETA   = 0           
+ LKT1    = 0           
+ LKT1L   = 0           
+ LKT2    = 0           
+ LL      = 0           
+ LLC     = 0           
+ LLN     = 1           
+ LMOIN   = 0           
+ LNFACTOR= 0           
+ LNLX    = 0           
+ LNOFF   = 0           
+ LPCLM   = 0           
+ LPDIBLC1= 0           
+ LPDIBLC2= 0           
+ LPDIBLCB= 0           
+ LPRT    = 0           
+ LPRWB   = 0           
+ LPRWG   = 0           
+ LPSCBE1 = 0           
+ LPSCBE2 = 0           
+ LPVAG   = 0           
+ LRDSW   = 0           
+ LU0     = 0           
+ LUA     = 0           
+ LUA1    = 0           
+ LUB     = 0           
+ LUB1    = 0           
+ LUC     = 0           
+ LUC1    = 0           
+ LUTE    = 0           
+ LVOFF   = 0           
+ LVOFFCV = 0           
+ LVSAT   = 0           
+ LVTH0   = 0           
+ LW      = 0           
+ LW0     = 0           
+ LWC     = 0           
+ LWL     = 0           
+ LWLC    = 0           
+ LWN     = 1           
+ LWR     = 0           
+ MJ      = 0.5         
+ MJSW    = 0.33        
+ MJSWG   = 0.33        
+ MOBMOD  = 1           
+ MOIN    = 15          
+ NCH     = 8.5E+16     
+ NFACTOR = 1           
+ NGATE   = 0           
+ NJ      = 1           
+ NLX     = 3.07179E-07 
+ NOFF    = 1           
+ NOIA    = 1E+20       
+ NOIB    = 50000       
+ NOIC    = -1.4E-12    
+ NSUB    = 6E+16       
+ PA0     = 0           
+ PA1     = 0           
+ PA2     = 0           
+ PAGS    = 0           
+ PALPHA0 = 0           
+ PALPHA1 = 0           
+ PAT     = 0           
+ PB      = 1           
+ PBETA0  = 0           
+ PBSW    = 1           
+ PBSWG   = 1           
+ PCDSC   = 0           
+ PCDSCB  = 0           
+ PCDSCD  = 0           
+ PCIT    = 0           
+ PCLM    = 1.5025      
+ PDELTA  = 0           
+ PDIBLC1 = 0           
+ PDIBLC2 = 0.0001      
+ PDIBLCB = 0           
+ PDROUT  = 0           
+ PDSUB   = 0           
+ PDVT0   = 0           
+ PDVT1   = 0           
+ PETA0   = 0           
+ PETAB   = 0           
+ PK1     = 0           
+ PK2     = 0           
+ PK3     = 0           
+ PK3B    = 0           
+ PKETA   = 0           
+ PKT1    = 0           
+ PKT1L   = 0           
+ PKT2    = 0           
+ PNFACTOR= 0           
+ PNLX    = 0           
+ PPCLM   = 0           
+ PPDIBLC1= 0           
+ PPDIBLC2= 0           
+ PPDIBLCB= 0           
+ PPRT    = 0           
+ PPRWB   = 0           
+ PPRWG   = 0           
+ PPSCBE1 = 0           
+ PPSCBE2 = 0           
+ PPVAG   = 0           
+ PRDSW   = 0           
+ PRT     = 0           
+ PRWB    = -0.0617285  
+ PRWG    = -0.0645048  
+ PSCBE1  = 4.24E+08    
+ PSCBE2  = 1E-05       
+ PU0     = 0           
+ PUA     = 0           
+ PUA1    = 0           
+ PUB     = 0           
+ PUB1    = 0           
+ PUC     = 0           
+ PUC1    = 0           
+ PUTE    = 0           
+ PVAG    = 0           
+ PVOFF   = 0           
+ PVSAT   = 0           
+ PVTH0   = 0           
+ PW0     = 0           
+ PWR     = 0           
+ RD      = 0           
+ RDSW    = 1295.41     
+ RS      = 0           
*+ TEMP    = 25          
+ TNOM    = 25          
+ TOX     = 1.40307E-08 
+ U0      = 424.736     
+ UA      = -8.81024E-10
+ UA1     = 4.31E-09    
+ UB      = 3.42033E-18 
+ UB1     = -7.61E-18   
+ UC      = 1.00951E-10 
+ UC1     = -5.69E-11   
+ UTE     = -1.5        
+ VBM     = -5          
+ VOFF    = -0.16       
+ VOFFCV  = 0           
+ VSAT    = 172164      
+ VTH0    = 0.715341    
+ W0      = 2.5E-06     
+ WA0     = 0           
+ WA1     = 0           
+ WA2     = 0           
+ WAGS    = 0           
+ WALPHA0 = 0           
+ WALPHA1 = 0           
+ WAT     = 0           
+ WBETA0  = 0           
+ WCDSC   = 0           
+ WCDSCB  = 0           
+ WCDSCD  = 0           
+ WCIT    = 0           
+ WDELTA  = 0           
+ WDROUT  = 0           
+ WDSUB   = 0           
+ WDVT0   = 0           
+ WDVT1   = 0           
+ WETA0   = 0           
+ WETAB   = 0           
+ WINT    = 2.9649E-07  
+ WK1     = 0           
+ WK2     = 0           
+ WK3     = 0           
+ WK3B    = 0           
+ WKETA   = 0           
+ WKT1    = 0           
+ WKT1L   = 0           
+ WKT2    = 0           
+ WL      = 0           
+ WLC     = 0           
+ WLN     = 1           
+ WNFACTOR= 0           
+ WNLX    = 0           
+ WPCLM   = 0           
+ WPDIBLC1= 0           
+ WPDIBLC2= 0           
+ WPDIBLCB= 0           
+ WPRT    = 0           
+ WPRWB   = 0           
+ WPRWG   = 0           
+ WPSCBE1 = 0           
+ WPSCBE2 = 0           
+ WPVAG   = 0           
+ WR      = 1           
+ WRDSW   = 0           
+ WU0     = 0           
+ WUA     = 0           
+ WUA1    = 0           
+ WUB     = 0           
+ WUB1    = 0           
+ WUC     = 0           
+ WUC1    = 0           
+ WUTE    = 0           
+ WVOFF   = 0           
+ WVSAT   = 0           
+ WVTH0   = 0           
+ WW      = 0           
+ WW0     = 0           
+ WWC     = 0           
+ WWL     = 0           
+ WWLC    = 0           
+ WWN     = 1           
+ WWR     = 0           
+ XJ      = 2.1E-07     
+ XL      = 0           
+ XT      = 1.55E-07    
+ XTI     = 3           
+ XW      = 0           
+ CGSO    = 3.62836E-10 
+ CGDO    = 3.62836E-10 
* + TOX     = 1.40307E-08 
+ CJ      = 0.000678126 
+ CF      = 0           
+ CJSW    = 2.61022E-10 
